<?xml version="1.0" encoding="UTF-8"?>

<!-- generated on 2024-05-20 21:13:12.760764 by randomTrips.py UNKNOWN
<configuration>
    <route-file value="grid.rou.xml"/>
    <end value="1800.0"/>
    <period value="2.0 0.4 2.0 0.4 2.0 0.4 2.0 0.4 2.0 0.4 2.0 0.4 2.0 0.4 2.0 0.4 2.0 0.4 2.0 0.4 2.0 0.4 2.0 0.4 2.0 0.4 2.0 0.4 2.0 0.4 2.0 0.4 2.0 0.4 2.0 0.4 2.0 0.4 2.0 0.4 2.0 0.4 2.0 0.4 2.0 0.4 2.0 0.4 2.0 0.4 2.0 0.4"/>
</configuration>
-->

<!-- generated on 2024-05-20 21:13:12 by Eclipse SUMO duarouter Version 1.20.0
<configuration xmlns:xsi="http://www.w3.org/2001/XMLSchema-instance" xsi:noNamespaceSchemaLocation="http://sumo.dlr.de/xsd/duarouterConfiguration.xsd">

    <input>
        <net-file value="grid.net.xml"/>
        <route-files value="trips.trips.xml"/>
    </input>

    <output>
        <output-file value="grid.rou.xml"/>
        <alternatives-output value="NUL"/>
    </output>

    <time>
        <begin value="0.0"/>
        <end value="1800.0"/>
    </time>

    <report>
        <no-warnings value="true"/>
        <ignore-errors value="true"/>
        <no-step-log value="true"/>
    </report>

</configuration>
-->

<routes xmlns:xsi="http://www.w3.org/2001/XMLSchema-instance" xsi:noNamespaceSchemaLocation="http://sumo.dlr.de/xsd/routes_file.xsd">
    <vehicle id="0" depart="0.00">
        <route edges="D4D3 D3D2 D2D1 D1C1 C1B1 B1A1 A1A2"/>
    </vehicle>
    <vehicle id="1" depart="2.00">
        <route edges="B4B5 B5B4 B4B3 B3B2 B2C2"/>
    </vehicle>
    <vehicle id="2" depart="4.00">
        <route edges="E1F1 F1F2 F2F3 F3F4 F4F5 F5E5 E5D5 D5E5"/>
    </vehicle>
    <vehicle id="3" depart="6.00">
        <route edges="F1F0 F0E0 E0D0 D0C0 C0B0 B0A0 A0A1 A1A2 A2A3 A3B3"/>
    </vehicle>
    <vehicle id="4" depart="8.00">
        <route edges="C3C2 C2C1 C1B1 B1A1 A1A2"/>
    </vehicle>
    <vehicle id="5" depart="10.00">
        <route edges="B2C2 C2D2 D2D1 D1D0 D0C0"/>
    </vehicle>
    <vehicle id="6" depart="12.00">
        <route edges="A1A2 A2B2 B2A2"/>
    </vehicle>
    <vehicle id="7" depart="14.00">
        <route edges="D4D5 D5D4 D4D3 D3D2 D2D1 D1D2"/>
    </vehicle>
    <vehicle id="8" depart="16.00">
        <route edges="B2C2 C2D2 D2E2"/>
    </vehicle>
    <vehicle id="9" depart="18.00">
        <route edges="E4D4 D4D3 D3D2 D2D1 D1D0 D0C0 C0B0 B0A0 A0A1"/>
    </vehicle>
    <vehicle id="10" depart="20.00">
        <route edges="E3F3 F3F2 F2F1 F1F0 F0E0 E0E1"/>
    </vehicle>
    <vehicle id="11" depart="22.00">
        <route edges="C0D0 D0C0 C0B0 B0C0"/>
    </vehicle>
    <vehicle id="12" depart="24.00">
        <route edges="F3F4 F4F3 F3F2 F2F1 F1F0 F0E0 E0D0 D0C0 C0D0"/>
    </vehicle>
    <vehicle id="13" depart="26.00">
        <route edges="A4A3"/>
    </vehicle>
    <vehicle id="14" depart="28.00">
        <route edges="E5D5 D5D4 D4D3 D3D2"/>
    </vehicle>
    <vehicle id="15" depart="30.00">
        <route edges="E3F3 F3F2 F2F1 F1E1 E1E2"/>
    </vehicle>
    <vehicle id="16" depart="32.00">
        <route edges="D1D0 D0D1 D1D2 D2D3 D3D4 D4E4 E4F4 F4F3"/>
    </vehicle>
    <vehicle id="17" depart="34.00">
        <route edges="C2B2 B2C2 C2D2 D2D1 D1E1"/>
    </vehicle>
    <vehicle id="18" depart="34.62">
        <route edges="E4E5 E5E4 E4E3 E3D3 D3E3"/>
    </vehicle>
    <vehicle id="19" depart="35.02">
        <route edges="E5F5 F5F4 F4F3 F3F2 F2E2 E2D2 D2D3"/>
    </vehicle>
    <vehicle id="20" depart="35.42">
        <route edges="E0F0 F0F1 F1F2 F2E2 E2D2 D2C2 C2B2 B2A2 A2A1"/>
    </vehicle>
    <vehicle id="21" depart="35.82">
        <route edges="B3A3 A3A4 A4B4 B4C4"/>
    </vehicle>
    <vehicle id="22" depart="36.22">
        <route edges="A3A4 A4B4 B4B3 B3A3"/>
    </vehicle>
    <vehicle id="23" depart="36.62">
        <route edges="A4A5 A5B5 B5B4 B4B5"/>
    </vehicle>
    <vehicle id="24" depart="37.02">
        <route edges="D4D3 D3D2 D2D1 D1C1 C1C2"/>
    </vehicle>
    <vehicle id="25" depart="37.42">
        <route edges="C1D1 D1C1 C1B1 B1B2 B2B3"/>
    </vehicle>
    <vehicle id="26" depart="37.82">
        <route edges="B4B3 B3C3 C3D3 D3E3 E3F3 F3E3"/>
    </vehicle>
    <vehicle id="27" depart="38.22">
        <route edges="D4D5 D5D4 D4D3 D3D4"/>
    </vehicle>
    <vehicle id="28" depart="38.62">
        <route edges="B1B0 B0C0 C0D0 D0E0 E0E1 E1E2"/>
    </vehicle>
    <vehicle id="29" depart="39.02">
        <route edges="B1A1 A1A2 A2B2 B2C2 C2B2"/>
    </vehicle>
    <vehicle id="30" depart="39.42">
        <route edges="F5E5 E5D5 D5D4 D4D3"/>
    </vehicle>
    <vehicle id="31" depart="39.82">
        <route edges="D1E1 E1E0 E0D0"/>
    </vehicle>
    <vehicle id="32" depart="40.22">
        <route edges="E5D5 D5E5 E5E4 E4E3 E3D3"/>
    </vehicle>
    <vehicle id="33" depart="40.62">
        <route edges="B3A3 A3A2 A2A1 A1A2"/>
    </vehicle>
    <vehicle id="34" depart="41.02">
        <route edges="B5C5 C5C4 C4B4 B4B3"/>
    </vehicle>
    <vehicle id="35" depart="41.42">
        <route edges="B2B3 B3C3 C3D3 D3E3 E3F3 F3F2"/>
    </vehicle>
    <vehicle id="36" depart="41.82">
        <route edges="F0F1 F1F2 F2F3 F3F4 F4F5 F5E5 E5D5 D5C5 C5B5 B5C5"/>
    </vehicle>
    <vehicle id="37" depart="42.22">
        <route edges="D4E4 E4E3 E3E2 E2D2 D2C2 C2C3"/>
    </vehicle>
    <vehicle id="38" depart="42.62">
        <route edges="F2E2 E2D2 D2C2 C2C3 C3C4 C4C5"/>
    </vehicle>
    <vehicle id="39" depart="43.02">
        <route edges="B4A4 A4B4 B4B3 B3B4"/>
    </vehicle>
    <vehicle id="40" depart="43.42">
        <route edges="D2C2 C2B2 B2B3 B3B4 B4A4"/>
    </vehicle>
    <vehicle id="41" depart="43.82">
        <route edges="D2E2 E2F2 F2F1 F1F0"/>
    </vehicle>
    <vehicle id="42" depart="44.22">
        <route edges="C2C3 C3C2 C2B2 B2C2"/>
    </vehicle>
    <vehicle id="43" depart="44.62">
        <route edges="F5F4 F4F3 F3F2 F2F1 F1F0 F0E0 E0D0 D0D1"/>
    </vehicle>
    <vehicle id="44" depart="45.02">
        <route edges="A3B3 B3A3 A3A2 A2A1"/>
    </vehicle>
    <vehicle id="45" depart="45.42">
        <route edges="A4B4 B4C4 C4D4 D4C4"/>
    </vehicle>
    <vehicle id="46" depart="45.82">
        <route edges="E3E4 E4E3 E3D3 D3C3 C3C2"/>
    </vehicle>
    <vehicle id="47" depart="46.22">
        <route edges="A2B2 B2C2 C2B2"/>
    </vehicle>
    <vehicle id="48" depart="46.62">
        <route edges="F5F4 F4F3 F3F2 F2F1 F1E1 E1D1 D1C1"/>
    </vehicle>
    <vehicle id="49" depart="47.02">
        <route edges="F4F3 F3E3 E3E4 E4E5 E5F5"/>
    </vehicle>
    <vehicle id="50" depart="47.42">
        <route edges="A0B0 B0C0 C0D0 D0D1 D1E1 E1E0"/>
    </vehicle>
    <vehicle id="51" depart="47.82">
        <route edges="D5E5 E5E4 E4E3 E3E2 E2E1 E1D1 D1D0"/>
    </vehicle>
    <vehicle id="52" depart="48.22">
        <route edges="B4B3 B3B4 B4C4 C4D4 D4D3"/>
    </vehicle>
    <vehicle id="53" depart="48.62">
        <route edges="A4B4 B4C4 C4C3 C3D3"/>
    </vehicle>
    <vehicle id="54" depart="49.02">
        <route edges="C4C3 C3D3 D3E3 E3F3 F3F4"/>
    </vehicle>
    <vehicle id="55" depart="49.42">
        <route edges="F0F1 F1F2 F2F3 F3F4 F4E4 E4D4 D4C4 C4B4 B4A4"/>
    </vehicle>
    <vehicle id="56" depart="49.82">
        <route edges="D0C0 C0B0 B0B1 B1B2"/>
    </vehicle>
    <vehicle id="57" depart="50.22">
        <route edges="F2E2 E2F2 F2F1 F1F0 F0E0"/>
    </vehicle>
    <vehicle id="58" depart="50.62">
        <route edges="B5A5 A5A4 A4B4 B4C4 C4D4 D4D3"/>
    </vehicle>
    <vehicle id="59" depart="51.02">
        <route edges="D3D4 D4D3 D3D2 D2D1 D1D0 D0C0 C0B0 B0C0"/>
    </vehicle>
    <vehicle id="60" depart="51.42">
        <route edges="E2E3 E3E2 E2E1 E1D1 D1D0"/>
    </vehicle>
    <vehicle id="61" depart="51.82">
        <route edges="E3D3 D3D2 D2D1 D1C1"/>
    </vehicle>
    <vehicle id="62" depart="52.22">
        <route edges="A0A1 A1B1 B1C1 C1C0 C0B0"/>
    </vehicle>
    <vehicle id="63" depart="52.62">
        <route edges="A1A0 A0B0 B0C0 C0D0 D0E0 E0F0 F0F1 F1F2 F2F3"/>
    </vehicle>
    <vehicle id="64" depart="53.02">
        <route edges="F0F1 F1F2 F2F3 F3F4 F4E4 E4E5"/>
    </vehicle>
    <vehicle id="65" depart="53.42">
        <route edges="B5B4 B4B3 B3B2 B2A2 A2A3"/>
    </vehicle>
    <vehicle id="66" depart="53.82">
        <route edges="F0F1 F1F2 F2F3 F3F2"/>
    </vehicle>
    <vehicle id="67" depart="54.22">
        <route edges="A3B3 B3B4 B4B5 B5C5 C5C4"/>
    </vehicle>
    <vehicle id="68" depart="54.62">
        <route edges="A3A2 A2B2 B2C2 C2D2 D2E2 E2E3"/>
    </vehicle>
    <vehicle id="69" depart="55.02">
        <route edges="E2E3 E3D3 D3C3 C3B3 B3A3 A3A4 A4A5 A5B5"/>
    </vehicle>
    <vehicle id="70" depart="55.42">
        <route edges="C5B5 B5C5 C5D5 D5D4 D4D3 D3D2 D2D1 D1D2"/>
    </vehicle>
    <vehicle id="71" depart="55.82">
        <route edges="B4A4 A4B4 B4C4 C4D4 D4E4 E4F4 F4F3 F3F2 F2F1 F1F0 F0E0"/>
    </vehicle>
    <vehicle id="72" depart="56.22">
        <route edges="C3C2 C2B2 B2B3"/>
    </vehicle>
    <vehicle id="73" depart="56.62">
        <route edges="D1D0 D0D1 D1E1 E1E2"/>
    </vehicle>
    <vehicle id="74" depart="57.02">
        <route edges="B2B1 B1B2 B2B3 B3B4 B4B5 B5C5"/>
    </vehicle>
    <vehicle id="75" depart="57.42">
        <route edges="F5F4 F4E4 E4D4 D4D5"/>
    </vehicle>
    <vehicle id="76" depart="57.82">
        <route edges="C3D3 D3D2 D2D1 D1D0 D0E0"/>
    </vehicle>
    <vehicle id="77" depart="58.22">
        <route edges="A5A4 A4A3 A3A2 A2B2 B2C2"/>
    </vehicle>
    <vehicle id="78" depart="58.62">
        <route edges="C0D0 D0D1 D1D2 D2E2"/>
    </vehicle>
    <vehicle id="79" depart="59.02">
        <route edges="B3A3 A3B3 B3B2 B2C2"/>
    </vehicle>
    <vehicle id="80" depart="59.42">
        <route edges="A3A2 A2A3 A3A4 A4B4 B4C4 C4D4 D4C4"/>
    </vehicle>
    <vehicle id="81" depart="59.82">
        <route edges="B3A3 A3B3 B3C3 C3D3 D3E3 E3F3 F3F2 F2F1 F1F2"/>
    </vehicle>
    <vehicle id="82" depart="60.22">
        <route edges="E5F5 F5F4 F4F3 F3E3 E3D3 D3C3 C3B3 B3A3 A3A2"/>
    </vehicle>
    <vehicle id="83" depart="60.62">
        <route edges="B3B2 B2B3 B3B4 B4B5 B5C5 C5D5 D5D4"/>
    </vehicle>
    <vehicle id="84" depart="61.02">
        <route edges="B2B3 B3B4 B4A4 A4A5 A5B5"/>
    </vehicle>
    <vehicle id="85" depart="61.42">
        <route edges="F3E3 E3D3 D3D2 D2D1"/>
    </vehicle>
    <vehicle id="86" depart="61.82">
        <route edges="C4D4 D4E4 E4E3 E3E2"/>
    </vehicle>
    <vehicle id="87" depart="62.22">
        <route edges="E3F3 F3F2 F2F1 F1E1 E1D1 D1C1 C1B1 B1C1"/>
    </vehicle>
    <vehicle id="88" depart="62.62">
        <route edges="A4A3 A3B3 B3C3 C3C4"/>
    </vehicle>
    <vehicle id="89" depart="63.02">
        <route edges="C3C2 C2C3 C3C4 C4D4"/>
    </vehicle>
    <vehicle id="90" depart="63.42">
        <route edges="E1E2 E2E3 E3E4 E4E5 E5D5 D5D4"/>
    </vehicle>
    <vehicle id="91" depart="63.82">
        <route edges="F5E5 E5D5 D5C5 C5B5 B5A5 A5A4 A4A3"/>
    </vehicle>
    <vehicle id="92" depart="64.22">
        <route edges="C2D2 D2C2 C2C1 C1C0 C0D0"/>
    </vehicle>
    <vehicle id="93" depart="64.62">
        <route edges="E5F5 F5F4 F4F3 F3E3 E3D3 D3C3 C3B3 B3B4"/>
    </vehicle>
    <vehicle id="94" depart="65.02">
        <route edges="B1C1 C1C2 C2C3 C3C4 C4B4"/>
    </vehicle>
    <vehicle id="95" depart="65.42">
        <route edges="C3C2 C2B2 B2B3 B3B4 B4B5"/>
    </vehicle>
    <vehicle id="96" depart="65.82">
        <route edges="B3B4 B4C4 C4D4 D4E4 E4F4 F4F3 F3F2 F2F1"/>
    </vehicle>
    <vehicle id="97" depart="66.22">
        <route edges="C4B4 B4B5 B5C5 C5D5 D5E5 E5F5"/>
    </vehicle>
    <vehicle id="98" depart="66.62">
        <route edges="D1E1 E1D1 D1C1 C1B1 B1A1 A1A2 A2A3"/>
    </vehicle>
    <vehicle id="99" depart="67.02">
        <route edges="F5F4 F4E4 E4F4"/>
    </vehicle>
    <vehicle id="100" depart="67.42">
        <route edges="F4F3 F3F2 F2F3"/>
    </vehicle>
    <vehicle id="101" depart="67.82">
        <route edges="E5D5 D5C5 C5B5 B5B4 B4B3 B3B2 B2B1 B1A1"/>
    </vehicle>
    <vehicle id="102" depart="68.22">
        <route edges="C5C4 C4C3 C3C2 C2B2 B2B3"/>
    </vehicle>
    <vehicle id="103" depart="68.62">
        <route edges="C2D2 D2C2 C2B2 B2A2 A2B2"/>
    </vehicle>
    <vehicle id="104" depart="69.02">
        <route edges="C2B2 B2C2 C2D2 D2E2 E2F2 F2F3 F3F4 F4F5 F5E5"/>
    </vehicle>
    <vehicle id="105" depart="69.23">
        <route edges="B4A4 A4B4 B4C4 C4D4 D4E4 E4E3 E3E2"/>
    </vehicle>
    <vehicle id="106" depart="71.23">
        <route edges="C4C3 C3C2"/>
    </vehicle>
    <vehicle id="107" depart="73.23">
        <route edges="F3F4 F4F5 F5E5 E5F5 F5F4"/>
    </vehicle>
    <vehicle id="108" depart="75.23">
        <route edges="D1E1 E1E0"/>
    </vehicle>
    <vehicle id="109" depart="77.23">
        <route edges="B0C0 C0B0 B0B1 B1B2 B2B3 B3B4 B4B5 B5A5"/>
    </vehicle>
    <vehicle id="110" depart="79.23">
        <route edges="F4F3 F3F2 F2E2 E2D2 D2D3"/>
    </vehicle>
    <vehicle id="111" depart="81.23">
        <route edges="D1D2 D2E2 E2D2"/>
    </vehicle>
    <vehicle id="112" depart="83.23">
        <route edges="A2A3 A3B3 B3C3 C3C2 C2D2 D2E2"/>
    </vehicle>
    <vehicle id="113" depart="85.23">
        <route edges="D0C0 C0C1 C1C2 C2C3 C3C4 C4C5 C5D5 D5E5 E5E4"/>
    </vehicle>
    <vehicle id="114" depart="87.23">
        <route edges="B0C0 C0D0 D0E0 E0F0 F0F1 F1F2 F2F3 F3F4 F4E4"/>
    </vehicle>
    <vehicle id="115" depart="89.23">
        <route edges="A3A4 A4B4 B4B3 B3B2 B2B1 B1C1"/>
    </vehicle>
    <vehicle id="116" depart="91.23">
        <route edges="D3C3 C3C4 C4C5 C5D5 D5E5"/>
    </vehicle>
    <vehicle id="117" depart="93.23">
        <route edges="B3B2 B2B3 B3B4 B4B5 B5A5 A5A4"/>
    </vehicle>
    <vehicle id="118" depart="95.23">
        <route edges="F1E1 E1D1 D1C1 C1B1 B1B2 B2B3 B3B4"/>
    </vehicle>
    <vehicle id="119" depart="97.23">
        <route edges="D3C3 C3D3 D3E3"/>
    </vehicle>
    <vehicle id="120" depart="99.23">
        <route edges="C3C2 C2D2 D2E2"/>
    </vehicle>
    <vehicle id="121" depart="101.23">
        <route edges="D0E0 E0F0 F0F1 F1F2 F2F3 F3E3"/>
    </vehicle>
    <vehicle id="122" depart="103.23">
        <route edges="B2B1 B1C1 C1D1 D1E1 E1D1"/>
    </vehicle>
    <vehicle id="123" depart="103.85">
        <route edges="B3B2 B2C2 C2C3"/>
    </vehicle>
    <vehicle id="124" depart="104.25">
        <route edges="D5D4 D4C4 C4C5 C5B5 B5A5"/>
    </vehicle>
    <vehicle id="125" depart="104.65">
        <route edges="B5C5 C5D5 D5E5 E5E4 E4E3 E3E2 E2E1"/>
    </vehicle>
    <vehicle id="126" depart="105.05">
        <route edges="A3A2 A2A3 A3A4 A4B4 B4C4 C4C3"/>
    </vehicle>
    <vehicle id="127" depart="105.45">
        <route edges="F5F4"/>
    </vehicle>
    <vehicle id="128" depart="105.85">
        <route edges="A3A2 A2B2 B2B3"/>
    </vehicle>
    <vehicle id="129" depart="106.25">
        <route edges="B4A4 A4B4 B4C4 C4D4 D4E4 E4F4 F4F3 F3F2 F2F3"/>
    </vehicle>
    <vehicle id="130" depart="106.65">
        <route edges="F0F1"/>
    </vehicle>
    <vehicle id="131" depart="107.05">
        <route edges="C1D1 D1D0 D0C0 C0B0 B0C0"/>
    </vehicle>
    <vehicle id="132" depart="107.45">
        <route edges="E4F4 F4F3 F3F2 F2F1 F1F0 F0E0 E0F0"/>
    </vehicle>
    <vehicle id="133" depart="107.85">
        <route edges="D3D4 D4E4 E4F4 F4F5 F5E5"/>
    </vehicle>
    <vehicle id="134" depart="108.25">
        <route edges="D4E4 E4E3 E3E2 E2E1 E1E0 E0D0 D0C0 C0B0 B0A0 A0A1"/>
    </vehicle>
    <vehicle id="135" depart="108.65">
        <route edges="E4E3 E3D3 D3D4 D4D5 D5C5 C5B5 B5A5"/>
    </vehicle>
    <vehicle id="136" depart="109.05">
        <route edges="D5C5 C5D5 D5E5 E5F5 F5F4 F4F3 F3E3"/>
    </vehicle>
    <vehicle id="137" depart="109.45">
        <route edges="B0A0 A0A1 A1A2 A2A3 A3A4 A4B4"/>
    </vehicle>
    <vehicle id="138" depart="109.85">
        <route edges="A4A5 A5B5 B5C5 C5D5 D5D4 D4D3 D3D2 D2D1 D1E1"/>
    </vehicle>
    <vehicle id="139" depart="110.25">
        <route edges="B4B3 B3C3 C3D3 D3D2"/>
    </vehicle>
    <vehicle id="140" depart="110.65">
        <route edges="E1E0 E0D0 D0C0 C0B0 B0B1 B1B2 B2B1"/>
    </vehicle>
    <vehicle id="141" depart="111.05">
        <route edges="D4D3 D3C3 C3B3 B3B4 B4A4"/>
    </vehicle>
    <vehicle id="142" depart="111.45">
        <route edges="C5C4 C4C3 C3C2 C2C1 C1D1 D1E1 E1F1 F1F2"/>
    </vehicle>
    <vehicle id="143" depart="111.85">
        <route edges="E5D5 D5C5 C5B5 B5A5 A5A4 A4A3"/>
    </vehicle>
    <vehicle id="144" depart="112.25">
        <route edges="C3C2 C2B2 B2B3 B3B4 B4B5"/>
    </vehicle>
    <vehicle id="145" depart="112.65">
        <route edges="A0A1 A1A2 A2B2 B2C2 C2D2 D2E2 E2F2"/>
    </vehicle>
    <vehicle id="146" depart="113.05">
        <route edges="D4D3 D3C3 C3B3 B3B4 B4A4"/>
    </vehicle>
    <vehicle id="147" depart="113.45">
        <route edges="E1F1 F1E1 E1D1 D1E1"/>
    </vehicle>
    <vehicle id="148" depart="113.85">
        <route edges="C3C4 C4C3 C3C2 C2C1 C1B1 B1A1 A1A0 A0B0"/>
    </vehicle>
    <vehicle id="149" depart="114.25">
        <route edges="A3A4 A4A3 A3A2 A2A1 A1A0 A0B0 B0C0 C0D0 D0E0 E0F0 F0F1"/>
    </vehicle>
    <vehicle id="150" depart="114.65">
        <route edges="F1F2 F2F1 F1E1 E1D1 D1D2"/>
    </vehicle>
    <vehicle id="151" depart="115.05">
        <route edges="E4F4 F4F3 F3F2 F2E2 E2D2 D2D3"/>
    </vehicle>
    <vehicle id="152" depart="115.45">
        <route edges="B0B1 B1B2 B2B3 B3A3 A3A4 A4A5 A5B5"/>
    </vehicle>
    <vehicle id="153" depart="115.85">
        <route edges="B5B4 B4B3 B3B2 B2B1 B1C1 C1D1 D1E1 E1F1 F1F0"/>
    </vehicle>
    <vehicle id="154" depart="116.25">
        <route edges="E3E4 E4E5 E5F5"/>
    </vehicle>
    <vehicle id="155" depart="116.65">
        <route edges="F1F0 F0E0 E0D0 D0C0 C0B0 B0B1 B1B2 B2B3"/>
    </vehicle>
    <vehicle id="156" depart="117.05">
        <route edges="B3B4 B4A4 A4A5"/>
    </vehicle>
    <vehicle id="157" depart="117.45">
        <route edges="E3D3 D3E3 E3F3 F3F2 F2F1 F1E1"/>
    </vehicle>
    <vehicle id="158" depart="117.85">
        <route edges="C2D2 D2D3 D3E3"/>
    </vehicle>
    <vehicle id="159" depart="118.25">
        <route edges="B0C0 C0D0 D0E0 E0F0 F0F1 F1F2 F2F3"/>
    </vehicle>
    <vehicle id="160" depart="118.65">
        <route edges="E5F5 F5F4 F4F5"/>
    </vehicle>
    <vehicle id="161" depart="119.05">
        <route edges="E4D4 D4D3 D3D2 D2D1 D1D0 D0E0 E0F0 F0F1"/>
    </vehicle>
    <vehicle id="162" depart="119.45">
        <route edges="A1A0 A0B0 B0C0 C0D0 D0E0 E0E1 E1F1"/>
    </vehicle>
    <vehicle id="163" depart="119.85">
        <route edges="C0C1 C1C2 C2D2 D2E2 E2F2 F2F3"/>
    </vehicle>
    <vehicle id="164" depart="120.25">
        <route edges="E3F3 F3E3 E3E4 E4E5 E5F5"/>
    </vehicle>
    <vehicle id="165" depart="120.65">
        <route edges="E4D4 D4C4 C4B4 B4B3"/>
    </vehicle>
    <vehicle id="166" depart="121.05">
        <route edges="E3E2 E2D2 D2C2 C2B2 B2A2 A2A3 A3A4 A4A5"/>
    </vehicle>
    <vehicle id="167" depart="121.45">
        <route edges="F0E0 E0E1 E1E2 E2E3 E3E4 E4E5 E5F5"/>
    </vehicle>
    <vehicle id="168" depart="121.85">
        <route edges="B2C2 C2C3 C3C4 C4D4 D4E4 E4D4"/>
    </vehicle>
    <vehicle id="169" depart="122.25">
        <route edges="C4C5 C5B5 B5B4"/>
    </vehicle>
    <vehicle id="170" depart="122.65">
        <route edges="E3E4 E4E3 E3D3 D3C3 C3B3 B3A3"/>
    </vehicle>
    <vehicle id="171" depart="123.05">
        <route edges="A1A0 A0B0 B0B1 B1B2 B2A2"/>
    </vehicle>
    <vehicle id="172" depart="123.45">
        <route edges="C0C1 C1C2 C2C3 C3C4 C4C5 C5D5 D5E5 E5F5"/>
    </vehicle>
    <vehicle id="173" depart="123.85">
        <route edges="F4F3 F3E3 E3D3 D3C3 C3B3 B3B4 B4B5"/>
    </vehicle>
    <vehicle id="174" depart="124.25">
        <route edges="D4D3 D3D2 D2C2 C2C3"/>
    </vehicle>
    <vehicle id="175" depart="124.65">
        <route edges="F4F5 F5E5 E5D5 D5D4 D4D3 D3D2 D2D1 D1D0"/>
    </vehicle>
    <vehicle id="176" depart="125.05">
        <route edges="F3E3 E3D3 D3C3 C3B3 B3A3 A3A4 A4B4"/>
    </vehicle>
    <vehicle id="177" depart="125.45">
        <route edges="F4F3 F3F2 F2F1 F1E1 E1D1 D1C1 C1B1 B1B2"/>
    </vehicle>
    <vehicle id="178" depart="125.85">
        <route edges="F4E4 E4D4 D4C4 C4B4 B4A4"/>
    </vehicle>
    <vehicle id="179" depart="126.25">
        <route edges="A4B4 B4C4 C4C3 C3D3"/>
    </vehicle>
    <vehicle id="180" depart="126.65">
        <route edges="E1E2 E2E3 E3E4 E4E5 E5D5 D5C5 C5B5 B5C5"/>
    </vehicle>
    <vehicle id="181" depart="127.05">
        <route edges="D3D2 D2D1 D1D0 D0D1"/>
    </vehicle>
    <vehicle id="182" depart="127.45">
        <route edges="C2C1 C1C2 C2D2 D2D3"/>
    </vehicle>
    <vehicle id="183" depart="127.85">
        <route edges="B3C3 C3D3 D3E3 E3E2 E2E1 E1D1"/>
    </vehicle>
    <vehicle id="184" depart="128.25">
        <route edges="A0A1 A1A2 A2B2 B2C2 C2D2 D2E2 E2F2 F2F3"/>
    </vehicle>
    <vehicle id="185" depart="128.65">
        <route edges="D1D0 D0D1 D1E1 E1E0"/>
    </vehicle>
    <vehicle id="186" depart="129.05">
        <route edges="E2D2 D2D3 D3D4 D4D5 D5D4"/>
    </vehicle>
    <vehicle id="187" depart="129.45">
        <route edges="C1C2 C2C3 C3B3 B3A3 A3A2"/>
    </vehicle>
    <vehicle id="188" depart="129.85">
        <route edges="D5C5 C5C4 C4C3 C3C2 C2C1 C1C0 C0C1"/>
    </vehicle>
    <vehicle id="189" depart="130.25">
        <route edges="B5C5 C5D5 D5E5 E5D5"/>
    </vehicle>
    <vehicle id="190" depart="130.65">
        <route edges="E1E0 E0D0 D0C0 C0B0 B0B1 B1B2 B2B3 B3B4 B4B5 B5B4"/>
    </vehicle>
    <vehicle id="191" depart="131.05">
        <route edges="B5C5 C5C4 C4C3 C3B3"/>
    </vehicle>
    <vehicle id="192" depart="131.45">
        <route edges="C2D2 D2D3 D3D4 D4D5 D5C5 C5B5 B5A5"/>
    </vehicle>
    <vehicle id="193" depart="131.85">
        <route edges="A5B5 B5C5 C5C4 C4C3 C3C2"/>
    </vehicle>
    <vehicle id="194" depart="132.25">
        <route edges="F3E3 E3D3 D3D4 D4D5 D5E5"/>
    </vehicle>
    <vehicle id="195" depart="132.65">
        <route edges="F1F2 F2E2 E2D2 D2D3 D3D4"/>
    </vehicle>
    <vehicle id="196" depart="133.05">
        <route edges="B5B4 B4B3 B3B2 B2B1 B1C1 C1D1 D1D2"/>
    </vehicle>
    <vehicle id="197" depart="133.45">
        <route edges="A0A1 A1A2 A2A3 A3A4 A4B4 B4C4"/>
    </vehicle>
    <vehicle id="198" depart="133.85">
        <route edges="C3C4 C4D4 D4D3 D3D2 D2D3"/>
    </vehicle>
    <vehicle id="199" depart="134.25">
        <route edges="D4E4 E4D4 D4C4 C4C5"/>
    </vehicle>
    <vehicle id="200" depart="134.65">
        <route edges="C4B4 B4B3 B3B2 B2B3"/>
    </vehicle>
    <vehicle id="201" depart="135.05">
        <route edges="C4D4 D4E4 E4F4 F4F3 F3F2 F2F1 F1F2"/>
    </vehicle>
    <vehicle id="202" depart="135.45">
        <route edges="E3E4 E4E3 E3E2 E2E1 E1D1 D1C1 C1B1 B1B0"/>
    </vehicle>
    <vehicle id="203" depart="135.85">
        <route edges="A3B3 B3C3 C3D3 D3D2 D2D1 D1D0 D0D1"/>
    </vehicle>
    <vehicle id="204" depart="136.25">
        <route edges="D4C4 C4C3 C3C2 C2C1 C1C0 C0D0"/>
    </vehicle>
    <vehicle id="205" depart="136.65">
        <route edges="E4E3 E3E2 E2E1"/>
    </vehicle>
    <vehicle id="206" depart="137.05">
        <route edges="D5D4 D4D3 D3D2 D2C2 C2B2 B2C2"/>
    </vehicle>
    <vehicle id="207" depart="137.45">
        <route edges="B2A2 A2A1 A1A0"/>
    </vehicle>
    <vehicle id="208" depart="137.85">
        <route edges="B3B4 B4C4 C4C5 C5B5"/>
    </vehicle>
    <vehicle id="209" depart="138.25">
        <route edges="E5D5 D5C5 C5B5 B5A5 A5A4 A4A3 A3A2"/>
    </vehicle>
    <vehicle id="210" depart="138.46">
        <route edges="C3B3 B3B4 B4C4 C4D4 D4C4"/>
    </vehicle>
    <vehicle id="211" depart="140.46">
        <route edges="B2A2 A2A1 A1A0 A0B0 B0C0 C0D0 D0E0 E0E1"/>
    </vehicle>
    <vehicle id="212" depart="142.46">
        <route edges="C5D5 D5D4 D4D3 D3C3 C3B3 B3B4"/>
    </vehicle>
    <vehicle id="213" depart="144.46">
        <route edges="D4E4 E4E3 E3E2 E2E1 E1E0 E0D0 D0C0 C0B0 B0A0 A0A1"/>
    </vehicle>
    <vehicle id="214" depart="146.46">
        <route edges="E2E1 E1E2 E2F2"/>
    </vehicle>
    <vehicle id="215" depart="148.46">
        <route edges="A4A5 A5B5 B5C5 C5C4 C4C3 C3C4"/>
    </vehicle>
    <vehicle id="216" depart="150.46">
        <route edges="B1B2 B2B3 B3C3 C3D3 D3E3 E3F3 F3F4"/>
    </vehicle>
    <vehicle id="217" depart="152.46">
        <route edges="D0E0 E0D0 D0C0 C0B0 B0A0 A0A1 A1A2 A2A3"/>
    </vehicle>
    <vehicle id="218" depart="154.46">
        <route edges="B3B4 B4B5 B5C5 C5D5 D5E5 E5D5"/>
    </vehicle>
    <vehicle id="219" depart="156.46">
        <route edges="C4C3 C3D3 D3E3 E3F3"/>
    </vehicle>
    <vehicle id="220" depart="158.46">
        <route edges="D5D4 D4E4 E4F4 F4F5 F5E5"/>
    </vehicle>
    <vehicle id="221" depart="160.46">
        <route edges="D3C3 C3D3 D3E3 E3F3 F3F4"/>
    </vehicle>
    <vehicle id="222" depart="162.46">
        <route edges="F1E1 E1D1 D1D2 D2D3 D3D4"/>
    </vehicle>
    <vehicle id="223" depart="164.46">
        <route edges="E1E0 E0D0 D0C0"/>
    </vehicle>
    <vehicle id="224" depart="166.46">
        <route edges="E4E5 E5E4 E4E3 E3E2 E2E1 E1D1 D1D2"/>
    </vehicle>
    <vehicle id="225" depart="168.46">
        <route edges="F1F0 F0E0 E0E1 E1E2 E2D2"/>
    </vehicle>
    <vehicle id="226" depart="170.46">
        <route edges="C4D4 D4C4 C4B4 B4A4"/>
    </vehicle>
    <vehicle id="227" depart="172.46">
        <route edges="B3B4 B4C4 C4D4 D4D3"/>
    </vehicle>
    <vehicle id="228" depart="173.08">
        <route edges="E2E3 E3E2 E2E1 E1D1 D1D0 D0E0"/>
    </vehicle>
    <vehicle id="229" depart="173.48">
        <route edges="D4C4 C4B4 B4B3"/>
    </vehicle>
    <vehicle id="230" depart="173.88">
        <route edges="A3A4 A4B4 B4C4"/>
    </vehicle>
    <vehicle id="231" depart="174.28">
        <route edges="B4B3 B3B2 B2B1 B1B0 B0C0 C0B0"/>
    </vehicle>
    <vehicle id="232" depart="174.68">
        <route edges="D1D0 D0C0 C0B0 B0A0"/>
    </vehicle>
    <vehicle id="233" depart="175.08">
        <route edges="B3A3 A3A2 A2A1 A1A0 A0B0 B0C0 C0D0 D0E0 E0E1"/>
    </vehicle>
    <vehicle id="234" depart="175.48">
        <route edges="E0F0 F0F1 F1F2 F2E2 E2D2 D2C2 C2B2 B2A2 A2B2"/>
    </vehicle>
    <vehicle id="235" depart="175.88">
        <route edges="C2D2 D2D1 D1D2"/>
    </vehicle>
    <vehicle id="236" depart="176.28">
        <route edges="C3B3 B3B2 B2B1"/>
    </vehicle>
    <vehicle id="237" depart="176.68">
        <route edges="C3C2 C2C1 C1D1 D1E1 E1F1 F1F2"/>
    </vehicle>
    <vehicle id="238" depart="177.08">
        <route edges="D2E2 E2E1 E1E0 E0E1"/>
    </vehicle>
    <vehicle id="239" depart="177.48">
        <route edges="E5E4 E4E3 E3E2 E2E3"/>
    </vehicle>
    <vehicle id="240" depart="177.88">
        <route edges="C2B2 B2B1 B1B0 B0A0 A0A1"/>
    </vehicle>
    <vehicle id="241" depart="178.28">
        <route edges="C1C0 C0C1 C1C2 C2D2 D2E2 E2E1"/>
    </vehicle>
    <vehicle id="242" depart="178.68">
        <route edges="E5E4 E4E3 E3F3 F3F4"/>
    </vehicle>
    <vehicle id="243" depart="179.08">
        <route edges="C3C2 C2D2 D2E2 E2D2"/>
    </vehicle>
    <vehicle id="244" depart="179.48">
        <route edges="D1D2 D2D3 D3D2"/>
    </vehicle>
    <vehicle id="245" depart="179.88">
        <route edges="B2C2"/>
    </vehicle>
    <vehicle id="246" depart="180.28">
        <route edges="C3D3 D3D2 D2D1 D1C1 C1B1 B1A1 A1A2"/>
    </vehicle>
    <vehicle id="247" depart="180.68">
        <route edges="C0D0 D0D1 D1D2 D2D3 D3D4 D4D5 D5E5"/>
    </vehicle>
    <vehicle id="248" depart="181.08">
        <route edges="C2D2 D2D1 D1C1 C1B1 B1A1"/>
    </vehicle>
    <vehicle id="249" depart="181.48">
        <route edges="C4D4 D4C4 C4B4 B4A4 A4A5 A5B5"/>
    </vehicle>
    <vehicle id="250" depart="181.88">
        <route edges="D3E3 E3E2 E2E1 E1D1 D1C1 C1B1 B1A1 A1A2"/>
    </vehicle>
    <vehicle id="251" depart="182.28">
        <route edges="C2C3 C3D3 D3D2 D2C2"/>
    </vehicle>
    <vehicle id="252" depart="182.68">
        <route edges="A1A2 A2A3 A3A4 A4B4 B4C4 C4D4 D4D5"/>
    </vehicle>
    <vehicle id="253" depart="183.08">
        <route edges="B0A0 A0A1 A1A2 A2A3 A3A4 A4B4 B4C4 C4C5"/>
    </vehicle>
    <vehicle id="254" depart="183.48">
        <route edges="A2A3 A3B3 B3C3 C3C2 C2B2"/>
    </vehicle>
    <vehicle id="255" depart="183.88">
        <route edges="B2B3 B3C3 C3C2 C2C1 C1C0 C0C1"/>
    </vehicle>
    <vehicle id="256" depart="184.28">
        <route edges="E2E3 E3E2 E2D2 D2C2 C2B2"/>
    </vehicle>
    <vehicle id="257" depart="184.68">
        <route edges="E2E1 E1E2 E2E3 E3E4 E4E5"/>
    </vehicle>
    <vehicle id="258" depart="185.08">
        <route edges="B3C3 C3B3 B3A3 A3A4"/>
    </vehicle>
    <vehicle id="259" depart="185.48">
        <route edges="A1A0 A0B0 B0C0 C0C1 C1D1 D1D0"/>
    </vehicle>
    <vehicle id="260" depart="185.88">
        <route edges="F5F4 F4F3 F3F2 F2F1 F1E1 E1D1 D1C1 C1B1"/>
    </vehicle>
    <vehicle id="261" depart="186.28">
        <route edges="D4E4 E4E3 E3D3"/>
    </vehicle>
    <vehicle id="262" depart="186.68">
        <route edges="D4E4 E4E3 E3E2 E2E1"/>
    </vehicle>
    <vehicle id="263" depart="187.08">
        <route edges="F3F2 F2E2 E2D2 D2C2 C2B2 B2A2"/>
    </vehicle>
    <vehicle id="264" depart="187.48">
        <route edges="A1A0 A0B0 B0C0"/>
    </vehicle>
    <vehicle id="265" depart="187.88">
        <route edges="A5B5 B5C5 C5D5 D5D4"/>
    </vehicle>
    <vehicle id="266" depart="188.28">
        <route edges="D2C2 C2B2 B2C2"/>
    </vehicle>
    <vehicle id="267" depart="188.68">
        <route edges="E0E1 E1E2 E2F2"/>
    </vehicle>
    <vehicle id="268" depart="189.08">
        <route edges="B1B0 B0B1 B1B2 B2B3 B3C3 C3D3 D3D2"/>
    </vehicle>
    <vehicle id="269" depart="189.48">
        <route edges="E2D2 D2C2 C2B2 B2A2 A2A3 A3A4 A4B4"/>
    </vehicle>
    <vehicle id="270" depart="189.88">
        <route edges="E4E3 E3E4 E4F4 F4E4"/>